Version 4
SHEET 1 904 680
WIRE 192 -96 0 -96
WIRE 192 -16 192 -96
WIRE 192 112 192 80
WIRE 416 176 416 144
WIRE 480 176 416 176
WIRE 528 176 528 144
WIRE 528 176 480 176
WIRE 144 192 0 192
WIRE 480 208 480 176
WIRE 192 240 192 208
FLAG 416 64 1
IOPIN 416 64 Out
FLAG 528 64 2
IOPIN 528 64 Out
FLAG 192 240 0
FLAG 0 -96 1
IOPIN 0 -96 Out
FLAG 0 192 2
IOPIN 0 192 Out
FLAG 480 208 0
SYMBOL nmos 144 112 R0
SYMATTR InstName M1
SYMBOL voltage 416 48 R0
WINDOW 3 -161 -94 Left 2
WINDOW 123 0 0 Left 0
WINDOW 39 0 0 Left 0
SYMATTR InstName V1
SYMATTR Value PULSE(0 5 0 1e-6 1e-6 1 2)
SYMBOL voltage 528 48 R0
WINDOW 3 35 95 Left 2
WINDOW 123 0 0 Left 0
WINDOW 39 0 0 Left 0
SYMATTR InstName V2
SYMATTR Value PULSE(0 5 0.5 1e-6 1e-6 1 2)
SYMBOL memristor 192 32 R180
SYMATTR InstName U1
TEXT -72 272 Left 2 !.tran 0 10 0 10e-4
