Version 4
SHEET 1 1300 1128
WIRE -256 -128 -384 -128
WIRE -112 -128 -160 -128
WIRE 272 -96 176 -96
WIRE 400 -96 368 -96
WIRE -112 -80 -112 -128
WIRE 160 -80 -112 -80
WIRE -256 -48 -336 -48
WIRE -112 -48 -112 -80
WIRE -112 -48 -160 -48
WIRE 400 -32 400 -96
WIRE 768 -32 400 -32
WIRE 272 -16 256 -16
WIRE 400 -16 400 -32
WIRE 400 -16 368 -16
WIRE -384 32 -384 -128
WIRE -384 32 -768 32
WIRE -256 32 -384 32
WIRE -112 32 -160 32
WIRE 176 32 176 -96
WIRE 176 32 48 32
WIRE 256 64 256 -16
WIRE 304 64 256 64
WIRE 432 64 400 64
WIRE 768 64 768 -32
WIRE 176 80 176 32
WIRE 240 80 176 80
WIRE -768 96 -768 32
WIRE 160 96 160 -80
WIRE -336 112 -336 -48
WIRE -256 112 -336 112
WIRE -112 112 -112 32
WIRE -112 112 -160 112
WIRE -32 112 -112 112
WIRE 48 112 48 32
WIRE 432 112 432 64
WIRE 512 112 432 112
WIRE 688 112 592 112
WIRE 832 112 784 112
WIRE 48 144 48 112
WIRE 80 144 48 144
WIRE 208 144 176 144
WIRE 240 144 240 80
WIRE 304 144 240 144
WIRE 432 144 432 112
WIRE 432 144 400 144
WIRE 832 144 832 112
WIRE 208 176 208 144
WIRE -384 192 -384 32
WIRE -256 192 -384 192
WIRE -112 192 -160 192
WIRE -112 224 -112 192
WIRE 384 224 -112 224
WIRE -768 272 -768 176
WIRE -336 272 -336 112
WIRE -256 272 -336 272
WIRE -112 272 -112 224
WIRE -112 272 -160 272
WIRE 96 288 -112 288
WIRE 384 336 384 224
WIRE 512 336 384 336
WIRE 640 336 592 336
WIRE 704 336 640 336
WIRE -112 352 -112 288
WIRE -112 352 -176 352
WIRE -64 352 -112 352
WIRE 64 352 32 352
WIRE 96 352 96 288
WIRE 128 352 96 352
WIRE 144 352 128 352
WIRE 288 352 240 352
WIRE 704 352 704 336
WIRE 832 352 800 352
WIRE 64 384 64 352
WIRE 288 384 288 352
WIRE 832 384 832 352
WIRE -336 432 -336 272
WIRE -336 432 -768 432
WIRE 16 432 16 400
WIRE 16 432 -336 432
WIRE 128 432 128 352
WIRE 784 432 784 400
WIRE 784 432 128 432
WIRE 640 496 640 336
WIRE 832 496 640 496
WIRE 832 512 832 496
WIRE -768 528 -768 432
WIRE 736 592 288 592
WIRE 208 608 16 608
WIRE -256 672 -256 352
WIRE -128 672 -256 672
WIRE 16 672 16 608
WIRE 16 672 -48 672
WIRE 48 672 16 672
WIRE 176 672 144 672
WIRE 208 672 208 608
WIRE 288 672 288 592
WIRE 288 672 208 672
WIRE 480 672 288 672
WIRE 608 672 576 672
WIRE 832 688 832 592
WIRE 176 704 176 672
WIRE 608 704 608 672
WIRE -768 720 -768 608
WIRE -384 736 -384 192
WIRE 128 736 128 720
WIRE 128 736 -384 736
WIRE 736 768 736 592
WIRE 784 768 736 768
WIRE 224 816 224 400
WIRE 224 816 -752 816
WIRE 256 816 256 64
WIRE 256 816 224 816
WIRE 560 816 560 720
WIRE 560 816 256 816
WIRE 832 816 832 784
WIRE -256 880 -256 672
WIRE 16 880 -256 880
WIRE 144 880 96 880
WIRE -752 912 -752 816
WIRE 144 912 144 880
WIRE -752 1088 -752 992
FLAG 176 704 0
FLAG 64 384 0
FLAG 288 384 0
FLAG 832 144 0
FLAG 832 384 0
FLAG 832 816 0
FLAG 608 704 0
FLAG 208 176 0
FLAG 144 912 0
FLAG -768 272 0
FLAG -768 720 0
FLAG -752 1088 0
SYMBOL memristor 352 144 R270
SYMATTR InstName U1
SYMBOL memristor -208 -128 R90
SYMATTR InstName U2
SYMBOL memristor -208 -48 M270
SYMATTR InstName U3
SYMBOL memristor -208 32 R270
SYMATTR InstName U4
SYMBOL memristor -208 192 R270
SYMATTR InstName U5
SYMBOL memristor -208 272 R270
SYMATTR InstName U6
SYMBOL memristor -208 112 R270
SYMATTR InstName U7
SYMBOL memristor 320 -96 R90
SYMATTR InstName U8
SYMBOL memristor 320 -16 R90
SYMATTR InstName U9
SYMBOL memristor 352 64 M90
SYMATTR InstName U10
SYMBOL res 64 96 R90
WINDOW 0 0 56 VBottom 2
WINDOW 3 32 56 VTop 2
SYMATTR InstName R1
SYMATTR Value 500
SYMBOL nmos 704 400 R270
SYMATTR InstName M5
SYMBOL nmos 144 400 R270
SYMATTR InstName M6
SYMBOL nmos -64 400 R270
SYMATTR InstName M7
SYMBOL nmos 80 96 M90
SYMATTR InstName M8
SYMBOL res -272 336 M90
WINDOW 0 0 56 VBottom 2
WINDOW 3 32 56 VTop 2
SYMATTR InstName R2
SYMATTR Value 500
SYMBOL res -32 656 R90
WINDOW 0 0 56 VBottom 2
WINDOW 3 32 56 VTop 2
SYMATTR InstName R3
SYMATTR Value 500
SYMBOL nmos 784 688 R0
SYMATTR InstName M9
SYMBOL nmos 480 720 R270
SYMATTR InstName M10
SYMBOL nmos 48 720 R270
SYMATTR InstName M11
SYMBOL res 608 320 R90
WINDOW 0 0 56 VBottom 2
WINDOW 3 32 56 VTop 2
SYMATTR InstName R4
SYMATTR Value 500
SYMBOL nmos 688 64 M90
SYMATTR InstName M1
SYMBOL res 608 96 R90
WINDOW 0 0 56 VBottom 2
WINDOW 3 32 56 VTop 2
SYMATTR InstName R5
SYMATTR Value 500
SYMBOL res 816 496 R0
SYMATTR InstName R6
SYMATTR Value 500
SYMBOL voltage 0 880 M90
WINDOW 0 -32 56 VBottom 2
WINDOW 3 -4 56 VBottom 2
WINDOW 123 0 0 Left 0
WINDOW 39 0 0 Left 0
SYMATTR InstName V1
SYMATTR Value 30
SYMBOL voltage -768 80 R0
WINDOW 123 0 0 Left 0
WINDOW 39 0 0 Left 0
SYMATTR InstName V2
SYMATTR Value PULSE(0 5 10 0.001 0.001 10 20 1)
SYMBOL voltage -768 512 R0
WINDOW 123 0 0 Left 0
WINDOW 39 0 0 Left 0
SYMATTR InstName V3
SYMATTR Value PULSE(0 5 5 0.001 0.001 5 10 2)
SYMBOL voltage -752 896 R0
WINDOW 123 0 0 Left 0
WINDOW 39 0 0 Left 0
SYMATTR InstName V4
SYMATTR Value PULSE(0 5 2.5 0.001 0.001 2.5 5 4)
TEXT -768 -256 Left 2 !.tran 0 20 0 1e-4
