Version 4
SHEET 1 880 680
WIRE 400 48 112 48
WIRE 400 80 400 48
WIRE 112 96 112 48
WIRE 112 208 112 176
WIRE 400 208 400 176
WIRE 400 208 112 208
WIRE 112 240 112 208
FLAG 112 240 0
SYMBOL voltage 112 80 R0
WINDOW 123 0 0 Left 0
WINDOW 39 0 0 Left 0
SYMATTR InstName V1
SYMATTR Value SINE(0 1 1e3)
SYMBOL MEM_YAKOPCIC 400 128 R0
SYMATTR InstName U2
TEXT 160 -8 Left 2 !.tran 0 3e-3 0
