Version 4
SHEET 1 1304 1328
WIRE 176 -16 -16 -16
WIRE 176 32 176 -16
WIRE 176 32 112 32
WIRE 224 32 176 32
WIRE 112 80 112 32
WIRE 224 80 224 32
WIRE 224 208 224 176
WIRE 448 208 224 208
WIRE 816 208 816 144
WIRE 960 208 960 144
WIRE 112 224 112 176
WIRE 112 224 32 224
WIRE 112 256 112 224
WIRE 224 256 224 208
WIRE 448 272 448 208
WIRE 112 400 112 352
WIRE 176 400 112 400
WIRE 224 400 224 352
WIRE 224 400 176 400
WIRE 448 416 448 368
WIRE 176 480 176 400
WIRE 176 480 -16 480
WIRE 400 496 352 496
WIRE 448 560 448 512
WIRE 32 608 32 224
WIRE 352 608 352 496
WIRE 352 608 32 608
FLAG 448 560 0
FLAG -16 -16 X1
IOPIN -16 -16 In
FLAG -16 480 X2
IOPIN -16 480 In
FLAG 816 208 0
FLAG 960 208 0
FLAG 960 64 X1
IOPIN 960 64 In
FLAG 816 64 X2
IOPIN 816 64 In
SYMBOL nmos 400 416 R0
SYMATTR InstName M1
SYMBOL voltage 816 48 R0
WINDOW 3 -267 -61 Left 2
WINDOW 123 0 0 Left 0
WINDOW 39 0 0 Left 0
SYMATTR Value PULSE(0 5 0 1e-12 1e-12 2 4)
SYMATTR InstName V1
SYMBOL voltage 960 48 R0
WINDOW 3 -4 -56 Left 2
WINDOW 123 0 0 Left 0
WINDOW 39 0 0 Left 0
SYMATTR Value PULSE(0 5 0 1e-12 1e-12 3 6)
SYMATTR InstName V2
SYMBOL MEM_YAKOPCIC 112 128 R180
SYMATTR InstName U1
SYMBOL MEM_YAKOPCIC 112 304 R0
SYMATTR InstName U2
SYMBOL MEM_YAKOPCIC 224 128 R0
SYMATTR InstName U3
SYMBOL MEM_YAKOPCIC 224 304 R180
SYMATTR InstName U4
SYMBOL memristor 448 320 R180
SYMATTR InstName U5
TEXT -104 560 Left 2 !.tran 0 12 1 1e-4
