Version 4
SHEET 1 1012 680
WIRE 384 -208 208 -208
WIRE 1008 -208 832 -208
WIRE 208 -144 208 -208
WIRE 832 -144 832 -208
WIRE 208 -16 208 -64
WIRE 832 -16 832 -64
WIRE 208 144 208 80
WIRE 832 144 832 64
WIRE 160 224 80 224
WIRE 784 224 704 224
WIRE 208 272 208 240
WIRE 384 272 384 -208
WIRE 384 272 208 272
WIRE 832 272 832 240
WIRE 1008 272 1008 -208
WIRE 1008 272 832 272
WIRE 208 304 208 272
WIRE 832 304 832 272
FLAG 208 304 0
FLAG 80 224 Vi
IOPIN 80 224 In
FLAG 32 -112 Vi
IOPIN 32 -112 In
FLAG 32 -32 0
FLAG 832 304 0
FLAG 704 224 Vi
IOPIN 704 224 In
SYMBOL voltage 208 -160 R0
WINDOW 123 0 0 Left 0
WINDOW 39 0 0 Left 0
SYMATTR InstName V1
SYMATTR Value 5
SYMBOL voltage 32 -128 R0
WINDOW 3 24 96 Invisible 2
WINDOW 123 0 0 Left 0
WINDOW 39 0 0 Left 0
SYMATTR Value PULSE(0 -5 0 1e-3 1e-3 1 2)
SYMATTR InstName V2
SYMBOL memristor 208 32 R0
SYMATTR InstName U1
SYMBOL pmos 160 144 R0
SYMATTR InstName M1
SYMBOL voltage 832 -160 R0
WINDOW 123 0 0 Left 0
WINDOW 39 0 0 Left 0
SYMATTR InstName V3
SYMATTR Value 5
SYMBOL pmos 784 144 R0
SYMATTR InstName M2
SYMBOL res 816 -32 R0
SYMATTR InstName R1
SYMATTR Value 5000k
TEXT 360 -280 Left 2 !.tran 0 10 0 1e-3
