Version 4
SHEET 1 1216 680
WIRE 384 -32 384 -64
WIRE 496 -32 496 -64
WIRE 672 -32 672 -64
WIRE 224 16 176 16
WIRE 336 16 304 16
WIRE 880 48 672 48
WIRE 1040 48 944 48
WIRE 32 144 0 144
WIRE 176 144 176 16
WIRE 176 144 128 144
WIRE 224 144 176 144
WIRE 336 160 336 16
WIRE 336 160 288 160
WIRE 352 160 336 160
WIRE 448 160 416 160
WIRE 528 160 448 160
WIRE 576 160 528 160
WIRE 672 160 672 48
WIRE 672 160 656 160
WIRE 688 160 672 160
WIRE 800 160 768 160
WIRE 880 160 800 160
WIRE 224 176 176 176
WIRE 1040 176 1040 48
WIRE 1040 176 944 176
WIRE 448 192 448 160
WIRE 528 192 528 160
WIRE 800 192 800 160
WIRE 880 192 848 192
WIRE 1040 192 1040 176
WIRE 176 240 176 176
WIRE 848 288 848 192
WIRE 1040 288 1040 272
WIRE 1040 288 848 288
WIRE 1104 288 1040 288
WIRE 448 320 448 272
WIRE 528 320 528 256
WIRE 800 320 800 256
WIRE 1040 400 1040 368
FLAG 448 320 0
FLAG 528 320 0
FLAG 800 320 0
FLAG 1040 400 0
FLAG 176 240 0
FLAG 1104 288 Vout
IOPIN 1104 288 Out
FLAG 0 144 Vin
FLAG 336 160 Vam
FLAG 384 -32 0
FLAG 496 -32 0
FLAG 384 -144 V++
FLAG 496 -144 V--
FLAG 256 128 V++
FLAG 912 208 V++
FLAG 256 192 V--
FLAG 912 144 V--
FLAG 672 -32 0
FLAG 672 -144 Vin
SYMBOL res 320 0 R90
WINDOW 0 0 56 VBottom 2
WINDOW 3 32 56 VTop 2
SYMATTR InstName R1
SYMATTR Value 10k
SYMBOL diode 352 176 R270
WINDOW 0 32 32 VTop 2
WINDOW 3 0 32 VBottom 2
SYMATTR InstName D1
SYMBOL res 432 176 R0
SYMATTR InstName R2
SYMATTR Value 10k
SYMBOL cap 512 192 R0
SYMATTR InstName C1
SYMATTR Value 1n
SYMBOL res 672 144 R90
WINDOW 0 0 56 VBottom 2
WINDOW 3 32 56 VTop 2
SYMATTR InstName R3
SYMATTR Value 10k
SYMBOL res 784 144 R90
WINDOW 0 0 56 VBottom 2
WINDOW 3 32 56 VTop 2
SYMATTR InstName R4
SYMATTR Value 10k
SYMBOL cap 784 192 R0
SYMATTR InstName C2
SYMATTR Value 0.1n
SYMBOL res 1024 176 R0
SYMATTR InstName R5
SYMATTR Value 1k
SYMBOL res 1024 272 R0
SYMATTR InstName R6
SYMATTR Value 1k
SYMBOL cap 944 32 R90
WINDOW 0 0 32 VBottom 2
WINDOW 3 32 32 VTop 2
SYMATTR InstName C3
SYMATTR Value 0.1n
SYMBOL voltage 384 -160 R0
WINDOW 123 0 0 Left 0
WINDOW 39 0 0 Left 0
SYMATTR InstName V1
SYMATTR Value 15
SYMBOL voltage 496 -160 R0
WINDOW 123 0 0 Left 0
WINDOW 39 0 0 Left 0
SYMATTR InstName V2
SYMATTR Value -15
SYMBOL OpAmps\\OP1177 256 96 R0
SYMATTR InstName U2
SYMBOL OpAmps\\OP1177 912 240 M180
SYMATTR InstName U3
SYMBOL voltage 672 -160 R0
WINDOW 123 0 0 Left 0
WINDOW 39 0 0 Left 0
SYMATTR InstName V3
SYMATTR Value SFFM(0 2 1e6 5 5e4)
SYMBOL memristor_AM 80 144 R270
SYMATTR InstName U1
TEXT 8 400 Left 2 !.tran 0 1350u 1300u 1e-9
