Version 4
SHEET 1 1336 680
WIRE 176 -112 176 -128
WIRE 272 -112 272 -128
WIRE 272 -112 176 -112
WIRE 400 -112 400 -128
WIRE 400 -112 272 -112
WIRE 496 -112 496 -128
WIRE 496 -112 400 -112
WIRE 640 -112 640 -128
WIRE 640 -112 496 -112
WIRE 400 -80 400 -112
WIRE 256 64 224 64
WIRE 368 64 336 64
WIRE 112 128 80 128
WIRE 656 144 656 112
WIRE 720 144 656 144
WIRE 112 160 112 128
WIRE 224 160 224 64
WIRE 224 160 112 160
WIRE 272 160 224 160
WIRE 896 160 784 160
WIRE 368 176 368 64
WIRE 368 176 336 176
WIRE 448 176 368 176
WIRE 592 176 544 176
WIRE 720 176 592 176
WIRE 272 192 224 192
WIRE 112 208 112 160
WIRE 112 208 80 208
WIRE 592 208 592 176
WIRE 224 288 224 192
WIRE 592 320 592 288
FLAG 224 288 0
FLAG 592 320 0
FLAG 400 -80 0
FLAG 176 -368 Vucs
IOPIN 176 -368 In
FLAG 272 -368 Vns
IOPIN 272 -368 In
FLAG 400 -208 V++
FLAG 496 -208 V--
FLAG 640 -208 Vcom
IOPIN 640 -208 In
FLAG 368 176 Vadd
FLAG 656 112 Vcom
IOPIN 656 112 In
FLAG 592 176 Vdiv
FLAG 752 128 V--
FLAG 752 192 V++
FLAG 304 144 V++
FLAG 304 208 V--
FLAG 896 160 Vout
IOPIN 896 160 Out
FLAG 0 208 Vns
IOPIN 0 208 In
FLAG 0 128 Vucs
IOPIN 0 128 In
SYMBOL res 96 112 R90
WINDOW 0 0 56 VBottom 2
WINDOW 3 32 56 Invisible 2
SYMATTR InstName R1
SYMATTR Value 50k
SYMBOL res 96 192 R90
WINDOW 0 0 56 VBottom 2
WINDOW 3 32 56 Invisible 2
SYMATTR InstName R2
SYMATTR Value 250k
SYMBOL res 352 48 R90
WINDOW 0 0 56 VBottom 2
WINDOW 3 32 56 Invisible 2
SYMATTR InstName Radd
SYMATTR Value 50k
SYMBOL res 576 192 R0
SYMATTR InstName R4
SYMATTR Value 1e6
SYMBOL voltage 176 -224 R0
WINDOW 0 24 16 Invisible 2
WINDOW 3 -531 68 Left 2
WINDOW 123 0 0 Left 0
WINDOW 39 0 0 Left 0
SYMATTR InstName Vucs
SYMATTR Value PULSE(0 {V} 0.1 1e-6 1e-6 0.01 0.02 5)
SYMBOL voltage 272 -224 R0
WINDOW 0 24 16 Invisible 2
WINDOW 3 -104 237 Left 2
WINDOW 123 0 0 Left 0
WINDOW 39 0 0 Left 0
SYMATTR InstName Vns
SYMATTR Value PULSE(0 {V} 0.3 1e-6 1e-6 0.01 0.02 5)
SYMBOL voltage 496 -224 R0
WINDOW 0 24 16 Invisible 2
WINDOW 123 0 0 Left 0
WINDOW 39 0 0 Left 0
SYMATTR InstName V3
SYMATTR Value -10
SYMBOL voltage 400 -224 R0
WINDOW 0 24 16 Invisible 2
WINDOW 123 0 0 Left 0
WINDOW 39 0 0 Left 0
SYMATTR InstName V1
SYMATTR Value 10
SYMBOL voltage 640 -224 R0
WINDOW 0 24 16 Invisible 2
WINDOW 123 0 0 Left 0
WINDOW 39 0 0 Left 0
SYMATTR InstName V2
SYMATTR Value -0.45
SYMBOL voltage 176 -304 R0
WINDOW 0 24 16 Invisible 2
WINDOW 3 -531 68 Left 2
WINDOW 123 0 0 Left 0
WINDOW 39 0 0 Left 0
SYMATTR InstName Vucs1
SYMATTR Value PULSE(0 {V} 0.5 1e-6 1e-6 0.01 0.02 5)
SYMBOL voltage 272 -304 R0
WINDOW 0 24 16 Invisible 2
WINDOW 3 -101 287 Left 2
WINDOW 123 0 0 Left 0
WINDOW 39 0 0 Left 0
SYMATTR InstName Vns1
SYMATTR Value PULSE(0 {V} 0.5 1e-6 1e-6 0.01 0.02 5)
SYMBOL voltage 176 -384 R0
WINDOW 0 24 16 Invisible 2
WINDOW 3 -531 68 Left 2
WINDOW 123 0 0 Left 0
WINDOW 39 0 0 Left 0
SYMATTR InstName Vucs2
SYMATTR Value PULSE(0 {V} 0.7 1e-6 1e-6 0.01 0.02 5)
SYMBOL voltage 272 -384 R0
WINDOW 0 24 16 Invisible 2
WINDOW 3 -104 335 Left 2
WINDOW 123 0 0 Left 0
WINDOW 39 0 0 Left 0
SYMATTR InstName Vns2
SYMATTR Value PULSE(0 {V} 0.9 1e-6 1e-6 0.01 0.02 5)
SYMBOL OpAmps\\OP07 304 112 R0
SYMATTR InstName U1
SYMBOL OpAmps\\OP07 752 224 M180
SYMATTR InstName U2
SYMBOL memristor_neural 496 176 R90
SYMATTR InstName U3
TEXT -16 424 Left 2 !.tran 0 1.2 0 1e-4
TEXT 40 -632 Left 2 !.param V=4
