Version 4
SHEET 1 1952 680
WIRE 1776 -320 1472 -320
WIRE -160 -288 -208 -288
WIRE 32 -288 -80 -288
WIRE 464 -288 32 -288
WIRE 32 -224 32 -288
WIRE 1472 -224 1472 -320
WIRE -208 -208 -208 -288
WIRE 464 -208 464 -288
WIRE 144 -48 -64 -48
WIRE 560 -48 368 -48
WIRE 1472 -32 1472 -144
WIRE 32 -16 32 -144
WIRE 464 -16 464 -128
WIRE 1424 48 1280 48
WIRE -224 64 -336 64
WIRE -64 64 -64 -48
WIRE -64 64 -144 64
WIRE -16 64 -64 64
WIRE 368 64 368 -48
WIRE 416 64 368 64
WIRE -336 128 -336 64
WIRE 32 160 32 80
WIRE 208 160 32 160
WIRE 464 160 464 80
WIRE 464 160 304 160
WIRE 1280 176 1280 48
WIRE 1280 176 1008 176
WIRE 1472 176 1472 64
WIRE 1664 176 1472 176
WIRE 1008 224 1008 176
WIRE 1472 240 1472 176
WIRE -336 256 -336 208
WIRE 464 256 464 160
WIRE 32 272 32 160
WIRE 1280 320 1280 176
WIRE 1424 320 1280 320
WIRE 1664 320 1664 176
WIRE 144 336 144 -48
WIRE 416 336 144 336
WIRE -16 352 -64 352
WIRE -240 400 -336 400
WIRE -64 400 -64 352
WIRE -64 400 -160 400
WIRE 560 400 560 -48
WIRE 560 400 -64 400
WIRE 1472 432 1472 336
WIRE -336 448 -336 400
WIRE 32 448 32 368
WIRE 464 448 464 352
WIRE 1008 544 1008 304
WIRE 1472 544 1472 512
WIRE 1472 544 1008 544
WIRE 1664 544 1664 416
WIRE 1664 544 1472 544
WIRE 1776 544 1776 -320
WIRE 1776 544 1664 544
WIRE -336 576 -336 528
WIRE 32 576 32 528
WIRE 464 576 464 528
WIRE 1472 592 1472 544
FLAG -336 256 0
FLAG -336 576 0
FLAG -208 -208 0
FLAG 32 576 0
FLAG 464 576 0
FLAG 1472 592 0
SYMBOL memristor 256 160 R90
SYMATTR InstName U1
SYMBOL pmos -16 -16 R0
SYMATTR InstName M1
SYMBOL pmos 416 -16 R0
SYMATTR InstName M3
SYMBOL res 16 -240 R0
SYMATTR InstName R1
SYMATTR Value 100k
SYMBOL res 448 -224 R0
SYMATTR InstName R2
SYMATTR Value 100k
SYMBOL voltage -64 -288 R90
WINDOW 0 -32 56 VBottom 2
WINDOW 3 -4 56 VBottom 2
WINDOW 123 0 0 Left 0
WINDOW 39 0 0 Left 0
SYMATTR InstName V1
SYMATTR Value 90
SYMBOL voltage -336 112 R0
WINDOW 123 0 0 Left 0
WINDOW 39 0 0 Left 0
SYMATTR InstName V2
SYMATTR Value PULSE(5 5 0.1 0 0 0.15 0.2 10)
SYMBOL voltage -336 432 R0
WINDOW 123 0 0 Left 0
WINDOW 39 0 0 Left 0
SYMATTR InstName V3
SYMATTR Value PULSE(5 0 0.1 0 0 0.1 0.2 10)
SYMBOL res -144 384 R90
WINDOW 0 0 56 VBottom 2
WINDOW 3 32 56 VTop 2
SYMATTR InstName R3
SYMATTR Value 1k
SYMBOL res -128 48 R90
WINDOW 0 0 56 VBottom 2
WINDOW 3 32 56 VTop 2
SYMATTR InstName R4
SYMATTR Value 1k
SYMBOL pmos 1424 -32 R0
SYMATTR InstName M5
SYMBOL nmos 1424 240 R0
SYMATTR InstName M6
SYMBOL voltage 1472 416 R0
WINDOW 123 0 0 Left 0
WINDOW 39 0 0 Left 0
SYMATTR InstName V4
SYMATTR Value -0.5
SYMBOL voltage 1472 -128 R180
WINDOW 0 24 96 Left 2
WINDOW 3 24 16 Left 2
WINDOW 123 0 0 Left 0
WINDOW 39 0 0 Left 0
SYMATTR InstName V5
SYMATTR Value -0.5
SYMBOL voltage 1008 208 R0
WINDOW 123 0 0 Left 0
WINDOW 39 0 0 Left 0
SYMATTR InstName V6
SYMATTR Value PULSE(0 5 0.1 0 0 0.5 1)
SYMBOL memristor 1664 368 R180
SYMATTR InstName U2
SYMBOL nmos -16 272 R0
SYMATTR InstName M2
SYMBOL nmos 416 256 R0
SYMATTR InstName M4
SYMBOL voltage 32 432 R0
WINDOW 123 0 0 Left 0
WINDOW 39 0 0 Left 0
SYMATTR InstName V7
SYMATTR Value 0.01
SYMBOL voltage 464 432 R0
WINDOW 123 0 0 Left 0
WINDOW 39 0 0 Left 0
SYMATTR InstName V8
SYMATTR Value -0.01
TEXT -408 320 Left 2 !.tran 0 3 0 0.0001
