Version 4
SHEET 1 1828 1428
WIRE 1168 -384 736 -384
WIRE 736 -320 736 -384
WIRE 1168 -304 1168 -384
WIRE -96 -288 -96 -336
WIRE 32 -288 32 -336
WIRE 160 -288 160 -336
WIRE 848 -144 640 -144
WIRE 1264 -144 1072 -144
WIRE 736 -112 736 -240
WIRE 1168 -112 1168 -224
WIRE -96 -64 -96 -112
WIRE 32 -64 32 -112
WIRE 160 -64 160 -112
WIRE 640 -32 640 -144
WIRE 640 -32 560 -32
WIRE 688 -32 640 -32
WIRE 1072 -32 1072 -144
WIRE 1120 -32 1072 -32
WIRE 736 16 736 -16
WIRE 736 16 -160 16
WIRE -144 48 -144 -48
WIRE -144 48 -336 48
WIRE -144 112 -144 48
WIRE 1168 128 1168 -16
WIRE 1168 128 400 128
WIRE 1168 160 1168 128
WIRE 736 176 736 16
WIRE 320 208 320 176
WIRE -336 224 -336 48
WIRE -144 224 -144 192
WIRE -16 224 -144 224
WIRE 208 224 64 224
WIRE 848 240 848 -144
WIRE 1120 240 848 240
WIRE 688 256 640 256
WIRE 640 304 640 256
WIRE 640 304 544 304
WIRE 1264 304 1264 -144
WIRE 1264 304 640 304
WIRE -144 320 -144 224
WIRE -80 320 -144 320
WIRE 64 336 -16 336
WIRE 208 336 208 224
WIRE 208 336 144 336
WIRE 320 336 320 288
WIRE 320 336 208 336
WIRE -336 352 -336 288
WIRE -80 352 -336 352
WIRE 1168 416 1168 256
WIRE 1168 448 736 448
WIRE -336 480 -336 352
WIRE -272 480 -336 480
WIRE -160 480 -160 16
WIRE -160 480 -192 480
WIRE -128 480 -160 480
WIRE 0 480 -64 480
WIRE 208 480 208 336
WIRE 208 480 96 480
WIRE 400 480 400 128
WIRE 400 480 208 480
WIRE 736 512 736 448
WIRE 1168 528 1168 448
WIRE -160 592 -160 480
WIRE -128 592 -160 592
WIRE 0 592 -64 592
WIRE 208 592 208 480
WIRE 208 592 96 592
WIRE 848 688 640 688
WIRE 1264 688 1072 688
WIRE 736 720 736 592
WIRE 1168 720 1168 608
WIRE 640 800 640 688
WIRE 640 800 560 800
WIRE 688 800 640 800
WIRE 1072 800 1072 688
WIRE 1120 800 1072 800
WIRE 208 928 208 592
WIRE 736 928 736 816
WIRE 736 928 208 928
WIRE -160 992 -160 592
WIRE 1168 992 1168 816
WIRE 1168 992 -160 992
WIRE 736 1008 736 928
WIRE 848 1072 848 688
WIRE 1120 1072 848 1072
WIRE 688 1088 640 1088
WIRE 640 1136 640 1088
WIRE 640 1136 544 1136
WIRE 1264 1136 1264 688
WIRE 1264 1136 640 1136
WIRE 1168 1248 1168 1088
FLAG -48 304 -V
FLAG -48 368 +V
FLAG -96 -288 0
FLAG -96 -64 0
FLAG -96 -192 +V
FLAG -96 -416 -V
FLAG -144 -48 0
FLAG 208 336 Vo
FLAG 320 48 0
FLAG 160 -288 0
FLAG 160 -64 0
FLAG 32 -288 0
FLAG 32 -64 0
FLAG 1168 416 0
FLAG 1168 1248 0
FLAG 736 -384 V4
FLAG 480 -32 V5
FLAG 464 304 V6
FLAG 736 272 V7
FLAG 736 448 V4
FLAG 480 800 V5
FLAG 464 1136 V6
FLAG 736 1104 V7
FLAG 32 -416 V4
FLAG 160 -416 V5
FLAG 160 -192 V6
FLAG 32 -192 V7
SYMBOL OpAmps\\AD549 -48 400 M180
SYMATTR InstName U1
SYMBOL voltage -96 -208 R0
WINDOW 123 0 0 Left 0
WINDOW 39 0 0 Left 0
SYMATTR InstName V1
SYMATTR Value 15
SYMBOL voltage -96 -432 R0
WINDOW 123 0 0 Left 0
WINDOW 39 0 0 Left 0
SYMATTR InstName V2
SYMATTR Value -15
SYMBOL res -176 464 R90
WINDOW 0 0 56 VBottom 2
WINDOW 3 32 56 VTop 2
SYMATTR InstName R1
SYMATTR Value 1k
SYMBOL res -160 96 R0
SYMATTR InstName R2
SYMATTR Value 2.7k
SYMBOL res 80 208 R90
WINDOW 0 0 56 VBottom 2
WINDOW 3 32 56 VTop 2
SYMATTR InstName R3
SYMATTR Value 20k
SYMBOL res 160 320 R90
WINDOW 0 0 56 VBottom 2
WINDOW 3 32 56 VTop 2
SYMATTR InstName R4
SYMATTR Value 1k
SYMBOL cap -352 224 R0
SYMATTR InstName C1
SYMATTR Value 80µ
SYMBOL diode -128 496 R270
WINDOW 0 32 32 VTop 2
WINDOW 3 0 32 VBottom 2
SYMATTR InstName D1
SYMATTR Value 1N914
SYMBOL diode -64 576 R90
WINDOW 0 0 32 VBottom 2
WINDOW 3 60 30 VBottom 2
SYMATTR InstName D2
SYMATTR Value 1N914
SYMBOL memristor 48 480 R270
SYMATTR InstName U2
SYMBOL memristor 48 592 R270
SYMATTR InstName U3
SYMBOL zener 304 48 R0
WINDOW 0 38 0 Left 2
SYMATTR InstName D3
SYMBOL zener 336 176 R180
WINDOW 0 24 64 Left 2
WINDOW 3 24 0 Left 2
SYMATTR InstName D4
SYMBOL voltage 320 304 R180
WINDOW 0 24 96 Left 2
WINDOW 3 24 16 Left 2
WINDOW 123 0 0 Left 0
WINDOW 39 0 0 Left 0
SYMATTR InstName V3
SYMATTR Value -1
SYMBOL pmos 688 -112 R0
SYMATTR InstName M1
SYMBOL pmos 1120 -112 R0
SYMATTR InstName M2
SYMBOL res 720 -336 R0
SYMATTR InstName R5
SYMATTR Value 100k
SYMBOL res 1152 -320 R0
SYMATTR InstName R6
SYMATTR Value 100k
SYMBOL voltage 160 -432 R0
WINDOW 123 0 0 Left 0
WINDOW 39 0 0 Left 0
SYMATTR InstName V5
SYMATTR Value PULSE(5 5 0 0 0 0.5 1 10)
SYMBOL voltage 160 -208 R0
WINDOW 123 0 0 Left 0
WINDOW 39 0 0 Left 0
SYMATTR InstName V6
SYMATTR Value PULSE(5 0 0 0 0 0.5 1 10)
SYMBOL res 560 288 R90
WINDOW 0 0 56 VBottom 2
WINDOW 3 32 56 VTop 2
SYMATTR InstName R7
SYMATTR Value 1k
SYMBOL res 576 -48 R90
WINDOW 0 0 56 VBottom 2
WINDOW 3 32 56 VTop 2
SYMATTR InstName R8
SYMATTR Value 1k
SYMBOL nmos 688 176 R0
SYMATTR InstName M3
SYMBOL nmos 1120 160 R0
SYMATTR InstName M4
SYMBOL voltage 32 -208 R0
WINDOW 123 0 0 Left 0
WINDOW 39 0 0 Left 0
SYMATTR InstName V7
SYMATTR Value 0.01
SYMBOL pmos 688 720 R0
SYMATTR InstName M5
SYMBOL pmos 1120 720 R0
SYMATTR InstName M6
SYMBOL res 720 496 R0
SYMATTR InstName R9
SYMATTR Value 100k
SYMBOL res 1152 512 R0
SYMATTR InstName R10
SYMATTR Value 100k
SYMBOL res 560 1120 R90
WINDOW 0 0 56 VBottom 2
WINDOW 3 32 56 VTop 2
SYMATTR InstName R11
SYMATTR Value 1k
SYMBOL res 576 784 R90
WINDOW 0 0 56 VBottom 2
WINDOW 3 32 56 VTop 2
SYMATTR InstName R12
SYMATTR Value 1k
SYMBOL nmos 688 1008 R0
SYMATTR InstName M7
SYMBOL nmos 1120 992 R0
SYMATTR InstName M8
SYMBOL voltage 32 -432 R0
WINDOW 123 0 0 Left 0
WINDOW 39 0 0 Left 0
SYMATTR InstName V4
SYMATTR Value 2
TEXT 240 -232 Left 2 !.tran 0 12 11 0.0001
